Circuit: * Z:\home\steve\pcbs\DasBlinkInput\spice\TransimpedenceAmplifier-01.asc

Direct Newton iteration for .op point succeeded.

Date: Sat May 16 13:52:28 2015
Total elapsed time: 0.116 seconds.

tnom = 27
temp = 27
method = modified trap
totiter = 2211
traniter = 2204
tranpoints = 1103
accept = 1087
rejected = 16
matrix size = 9
fillins = 1
solver = Normal
Matrix Compiler1: 422 bytes object code size  2.1/4.1/[2.0]
Matrix Compiler2: 771 bytes object code size  2.0/2.1/[2.0]


